Circuit: * C:\Users\elif\Desktop\two switch closed loop\two switch closed loop.asc

Direct Newton iteration failed to find .op point.  (Use ".option noopiter" to skip.)
Starting Gmin stepping
Gmin = 10
Gmin = 1.07374
Gmin = 0.115292
Gmin = 0.0123794
Gmin = 0.00132923
Gmin = 0.000142725
Gmin = 1.5325e-05
Gmin = 1.6455e-06
Gmin = 1.76685e-07
Gmin = 1.89714e-08
Gmin = 2.03704e-09
Gmin = 2.18725e-10
Gmin = 2.34854e-11
Gmin = 2.52173e-12
Gmin = 2.70769e-13
Gmin = 0
Gmin stepping succeeded in finding the operating point.


Date: Tue Jan 14 22:02:43 2025
Total elapsed time: 26.541 seconds.

tnom = 27
temp = 27
method = modified trap
totiter = 1896171
traniter = 1895773
tranpoints = 574986
accept = 413409
rejected = 161577
matrix size = 71
fillins = 37
solver = Normal
Avg thread counts: 4.0/2.0/1.0/1.0
Matrix Compiler1: 5.32 KB object code size  0.7/0.5/[0.3]
Matrix Compiler2: 5.83 KB object code size  0.5/0.6/[0.3]

